实验/systemFiles/case8387.py
from numpy import array

def load_case_data():
    ppc = {}
    ppc['version'] = '2'
    ppc['baseMVA'] = 100.0
    ppc['bus'] = array([
        [1, 1, 378.4, 98.5, 0, 0, 1, 1, 0, 220, 1, 1.1],
        [2, 1, 151, 48.8, 0, 0, 1, 1, 0, 220, 1, 1.1],
        [3, 1, 171.4081, 23.4, 0, 0, 1, 1.01394, 0, 220, 1, 1.12789],
        [4, 1, 45.95095, 14, 0, 0, 1, 1, 0, 220, 1, 1.1],
        [5, 2, 343.4, 53.1, 0, 20, 1, 1.01328, 0, 380, 1, 1.12656],
        [6, 1, 31.03441, 10.3, 0, 0, 1, 1, 0, 110, 1, 1.1],
        [7, 1, 134, 24.7, 0, 0, 1, 1.03048, 0, 220, 1, 1.16095],
        [8, 1, 0, 0, 0, 11.29798, 1, 1, 0, 150, 1, 1.1],
        [9, 1, -6.10677, 2, 0, 0, 1, 1.00252, 0, 150, 1, 1.10505],
        [10, 2, 8.509435, 5, 0, 0, 1, 1, 0, 220, 1, 1.1],
        [11, 1, 13.5, 14.8, 0, 0, 1, 1.03345, 0, 380, 1, 1.1669],
        [12, 1, 59.66615, 26.7, 0, 0, 1, 1.00668, 0, 220, 1, 1.11337],
        [13, 1, 67.67503, 12.1, 0, 0, 1, 1, 0, 220, 1, 1.1],
        [14, 2, 0, 0, 0, 0, 1, 1, 0, 380, 1, 1.1],
        [15, 1, 25.32808, 7.5, 0, 0, 1, 1, 0, 110, 1, 1.1],
        [16, 1, 161.2, 39.3, 0, 0, 1, 1.0268, 0, 220, 1, 1.1536],
        [17, 1, 0, 0, 0, 0, 1, 1.02308, 0, 220, 1, 1.14616],
        [18, 1, 19.62176, 7.1, 0, 0, 1, 1, 0, 110, 1, 1.1],
        [19, 1, 17.21909, 5.7, 0, 0, 1, 1, 0, 110, 1, 1.1],
        [20, 2, 0, 0, 0, 0, 1, 1, 0, 220, 1, 1.1],
        [21, 1, 167.3, 54.8, 0, 0, 1, 1.02004, 0, 380, 1, 1.14008],
        [22, 1, 0, 0, 0, 0, 1, 1.02105, 0, 380, 1, 1.14211],
        [23, 1, 0, 0, 0, 0, 1, 1, 0, 150, 1, 1.1],
        [24, 1, 152.9, 49.4, 0, 0, 1, 1.01093, 0, 380, 1, 1.12186],
        [25, 1, 0, 0, 0, 0, 1, 1, 0, 150, 1, 1.1],
        [26, 1, 69.67725, 43.2, 0, 0, 1, 0.98986, 0, 150, 1, 1.1],
        [27, 2, 0, 0, 0, 0, 1, 1, 0, 220, 1, 1.1],
        [28, 2, 0, 0, 0, 0, 1, 1, 0, 220, 1, 1.1],
        [29, 1, 13.51498, 4.9, 0, 0, 1, 1.0031, 0, 110, 1, 1.10621],
        [30, 1, 10.51165, 3.5, 0, 0, 1, 1.01172, 0, 110, 1, 1.12345],
        [31, 1, 0, 0, 0.122998, 0, 1, 1.00756, 0, 220, 1, 1.11512],
        [32, 1, 9.210212, 2.6, 0, 0, 1, 1, 0, 110, 1, 1.1],
        [33, 1, 42.74739, 12.8, 0, 0, 1, 1.02886, 0, 220, 1, 1.15771],
        [34, 2, 0, 0, 0, 0, 1, 1, 0, 150, 1, 1.1],
        [35, 2, 24.02664, 7.8, 0, 0, 1, 1, 0, 110, 1, 1.1],
        [36, 1, 20.82309, 7.9, 0, 0, 1, 1.0193, 0, 380, 1, 1.13861],
        [37, 1, 0, 0, 0, 0, 1, 1.0307, 0, 220, 1, 1.16139],
        [38, 1, 10.11121, 3.7, 0, 0, 1, 1.00689, 0, 110, 1, 1.11378],
        [39, 1, 10.0111, 2.7, 0, 0, 1, 1, 0, 110, 1, 1.1],
        [40, 1, 6.306993, 0, 0, 0, 1, 1, 0, 110, 1, 1.1],
        [41, 1, 2.903219, 0.9, 0, 0, 1, 1, 0, 110, 1, 1.1],
        [42, 2, 0, 0, 0, 0, 1, 1.00652, 0, 220, 1, 1.11304],
        [43, 2, 151.8, 48.3, 0, 0, 1, 1, 0, 220, 1, 1.1],
        [44, 1, 127.6, 31.8, 0, 0, 1, 1.00986, 0, 150, 1, 1.11972],
        [45, 1, 48.65394, 16.1, 0, 0, 1, 1.02079, 0, 220, 1, 1.14158],
        [46, 1, 110.5, -26.8, 0, 0, 1, 1.01425, 0, 220, 1, 1.12849],
        [47, 1, 0, 0, 0, 0, 1, 1, 0, 220, 1, 1.1],
        [48, 1, 140, 79.7, 0, 0, 1, 1, 0, 220, 1, 1.1],
        [49, 1, 0, 0, 0, 0, 1, 1.01785, 0, 380, 1, 1.1357],
        [50, 1, 119.2, 20.7, 0, 0, 1, 1.01293, 0, 220, 1, 1.12587],
        [51, 2, 5.105661, 1.3, 0, 0, 1, 1, 0, 110, 1, 1.1],
        [52, 1, 0, 0, 0, 0, 1, 1, 0, 380, 1, 1.1],
        [53, 1, 0, 0, 0, 0, 1, 1, 0, 110, 1, 1.1],
        [54, 1, 187.9, 110.2, 0, 20, 1, 1.00663, 0, 380, 1, 1.11326],
        [55, 1, 14.91654, 5.5, 0, 0, 1, 1, 0, 110, 1, 1.1],
        [56, 1, -18.5205, 6.1, 0, 0, 1, 1, 0, 150, 1, 1.1],
        [57, 1, 4.605106, 1.7, 0, 0, 1, 1.01755, 0, 110, 1, 1.13511],
        [58, 1, 0, 0, 0.090701, 0, 1, 1.02465, 0, 380, 1, 1.14929],
        [59, 1, 10.81199, 5.1, 0, 0, 1, 1, 0, 110, 1, 1.1],
        [60, 1, 62.86971, 20.5, 0, 0, 1, 1.01094, 0, 150, 1, 1.12187],
        [61, 1, 126.3, 42.4, 0, 0, 1, 1.02815, 0, 150, 1, 1.1563],
        [62, 1, 6.907659, -4.6, 0, 0, 1, 1, 0, 220, 1, 1.1],
        [63, 1, 15.71743, 5.2, 0, 0, 1, 1, 0, 110, 1, 1.1],
        [64, 1, 0, 0, 0, 17.1282, 1, 1, 0, 150, 1, 1.1],
        [65, 1, 38.74295, 6.1, 0, 0, 1, 1.00377, 0, 220, 1, 1.10755],
        [66, 1, 22.12453, 10.7, 0, 0, 1, 1.02891, 0, 220, 1, 1.15781],
        [67, 1, 0, 0, 0, 0, 1, 1, 0, 220, 1, 1.1],
        [68, 1, 0, 0, 0, 0, 1, 1, 0, 110, 1, 1.1],
        [69, 1, 138.8, 136.7, 0, 0, 1, 1, 0, 380, 1, 1.1],
        [70, 2, 137.3, 66.4, 0, 0, 1, 1.00412, 0, 220, 1, 1.10824],
        [71, 2, 67.77514, 19.7, 0, 0, 1, 1, 0, 150, 1, 1.1],
        [72, 1, 22.02442, 5.1, 0, 0, 1, 1, 0, 110, 1, 1.2],
        [73, 1, 0, 0, 0, 0, 1, 1, 0, 220, 1, 1.1],
        [74, 1, 1.00111, 0.3, 0, 0, 1, 1.01642, 0, 110, 1, 1.13284],
        [75, 1, 0, 0, 0, 0, 1, 1, 0, 150, 1, 1.1],
        [76, 1, 21.52386, 5.1, 0, 0, 1, 1, 0, 110, 1, 1.1],
        [77, 1, 71.9798, 28.8, 0, 0, 1, 1.0175, 0, 220, 1, 1.135],
        [78, 1, 0, 0, 0.173359, 0, 1, 1, 0, 380, 1, 1.1],
        [79, 2, 365.2, 116.5, 0, 0, 1, 1.00548, 0, 220, 1, 1.11095],
        [80, 1, 0, 0, 0, 0, 1, 1.02857, 0, 150, 1, 1.15715],
        [81, 1, 192.9, 73.3, 0, 0, 1, 1.0131, 0, 380, 1, 1.12619],
        [82, 1, 17.51942, 6.3, 0, 0, 1, 1.0176, 0, 110, 1, 1.1352],
        [83, 1, 33.13674, 12, 0, 0, 1, 1, 0, 110, 1, 1.1],
        [84, 1, 40.44484, 25, 0, 0, 1, 1, 0, 150, 1, 1.1],
        [85, 2, 212.9, 61.7, 0, 0, 1, 1.01207, 0, 220, 1, 1.12414],
        [86, 1, 0, 0, 0, 0, 1, 1.0134, 0, 380, 1, 1.12681],
        [87, 1, 90.70056, 25.5, 0, 0, 1, 1.00743, 0, 220, 1, 1.11487],
        [88, 1, 176.3, -58.9, 0, 0, 1, 1.02562, 0, 380, 1, 1.15124],
        [89, 1, 35.93985, 22.3, 0, 0, 1, 1, 0, 150, 1, 1.1],
        [90, 1, 0, 0, 0, 0, 1, 1, 0, 150, 1, 1.1],
        [91, 1, 0, 0, 0, 0, 1, 1, 0, 220, 1, 1.1],
        [92, 1, 65.07214, 40.3, 0, 0, 1, 1, 0, 150, 1, 1.1],
        [93, 1, 51.35694, -8.8, 0, 0, 1, 1, 0, 220, 1, 1.1],
        [94, 1, 0, 0, 0, 0, 1, 1.01449, 0, 380, 1, 1.12898],
        [95, 1, 0, 0, 0, 0, 1, 1.04155, 0, 380, 1, 1.18311],
        [96, 2, 0, 0, 0, 0, 1, 1.00954, 0, 380, 1, 1.11908],
        [97, 1, 3.804218, 1.3, 0, 0, 1, 1, 0, 110, 1, 1.1],
        [98, 1, 0, 0, 0, 0, 1, 1, 0, 150, 1, 1.1],
        [99, 1, 61.06771, 36, 0, 0, 1, 1, 0, 220, 1, 1.1],
        [100, 1, 0, 0, 0, 0, 1, 1.01426, 0, 220, 1, 1.12853],
        [101, 1, 0, 0, 0, 0, 1, 1.02297, 0, 380, 1, 1.14595],
        [102, 1, 0, 0, 0, 0, 1, 1.04218, 0, 220, 1, 1.18435],
        [103, 1, 1.801998, 0.7, 0, 0, 1, 1, 0, 110, 1, 1.1],
        [104, 1, 40.0444, 16, 0, 0, 1, 1, 0, 110, 1, 1.1],
        [105, 1, 0, 0, 0, 0, 1, 1.0098, 0, 380, 1, 1.1196],
        [106, 1, 0, 0, 0, 0, 1, 1.0115, 0, 150, 1, 1.123],
        [107, 1, 45.15006, 14.1, 0, 0, 1, 1, 0, 110, 1, 1.1],
        [108, 1, 0, 0, 0, 0, 1, 1, 0, 220, 1, 1.1],
        [109, 2, 0, 0, 0, 0, 1, 1.00665, 0, 220, 1, 1.11331],
        [110, 2, 0, 0, 0, 0, 1, 1.01601, 0, 220, 1, 1.13202],
        [111, 2, 8.209102, 4.4, 0, 0, 1, 1, 0, 110, 1, 1.1],
        [112, 1, 0, 0, 0, 0, 1, 1.01109, 0, 220, 1, 1.12219],
        [113, 1, 23.72631, 12.7, 0, 0, 1, 1.01454, 0, 220, 1, 1.12909],
        [114, 1, 121.9, 7.4, 0, 0, 1, 1.00959, 0, 220, 1, 1.11918],
        [115, 1, 0, 0, 0.156015, 0, 1, 1.02719, 0, 380, 1, 1.15438],
        [116, 1, 47.3525, 16.4, 0, 0, 1, 1, 0, 110, 1, 1.1],
        [117, 1, 0, 0, 0, 0, 1, 1.02734, 0, 380, 1, 1.15468],
        [118, 1, 38.14229, 12.5, 0, 0, 1, 1.0088, 0, 150, 1, 1.1176],
        [119, 1, 130.6, 84.9, 0, 0, 1, 1, 0, 220, 1, 1.1],
        [120, 1, 7.908769, 2.6, 0, 0, 1, 1, 0, 110, 1, 1.1],
        [121, 2, 47.15228, 78, 0, 0, 1, 1, 0, 150, 1, 1.1],
        [122, 1, -75.3836, 7.8, 0, 0, 1, 1.02934, 0, 380, 1, 1.15868],
        [123, 1, 0, 0, 0, 0, 1, 1, 0, 380, 1, 1.1],
        [124, 1, 0, 0, 0, 0, 1, 1, 0, 220, 1, 1.1],
        [125, 2, 100.9, 49.3, 0, 0, 1, 1.00263, 0, 220, 1, 1.10525],
        [126, 2, 0, 0, 0, 0, 1, 1.01655, 0, 220, 1, 1.13311],
        [127, 1, 0, 0, 0, 0, 1, 1.01901, 0, 150, 1, 1.13802],
        [128, 1, 0, 0, 0, 0, 1, 1, 0, 380, 1, 1.1],
        [129, 1, 38.34251, 5.6, 0, 0, 1, 1.02298, 0, 220, 1, 1.14596],
        [130, 1, 269.6, 65.7, 0, 0, 1, 1.03024, 0, 120, 1, 1.16048],
        [131, 2, 160, 3.3, 0, 0, 1, 1.02245, 0, 220, 1, 1.14491],
        [132, 1, 32.33585, 12, 0, 0, 1, 1.01605, 0, 220, 1, 1.1321],
        [133, 1, 100.1, 45.1, 0, 0, 1, 1.00781, 0, 380, 1, 1.11561],
        [134, 2, 12.31365, 3.9, 0, 0, 1, 1.03188, 0, 220, 1, 1.16377],
        [135, 1, 0, 0, 0, 0, 1, 1.01475, 0, 150, 1, 1.1295],
        [136, 1, 0, 0, 0, 0, 1, 1, 0, 110, 1, 1.1],
        [137, 1, 0, 0, 0, 0, 1, 1, 0, 110, 1, 1.1],
        [138, 1, 40.34473, 25, 0, 0, 1, 1, 0, 150, 1, 1.1],
        [139, 1, 9.210212, 3.3, 0, 0, 1, 1.00362, 0, 110, 1, 1.10724],
        [140, 1, 166, 60.3, 0, 0, 1, 1, 0, 220, 1, 1.1],
        [141, 1, 0, 0, 0, 0, 1, 1, 0, 150, 1, 1.1],
        [142, 1, 0, 0, 0, 0, 1, 1.00745, 0, 150, 1, 1.11491],
        [143, 1, 0, 0, 0, 0, 1, 1.03352, 0, 380, 1, 1.16705],
        [144, 2, 152.4, 35.1, 0, 0, 1, 1.01777, 0, 220, 1, 1.13555],
        [145, 1, 0, 0, 0, 0, 1, 1.01955, 0, 150, 1, 1.13909],
        [146, 1, 26.8, -3.7, 0, -25.3011, 1, 1.00905, 0, 380, 1, 1.11809],
        [147, 2, 0, 0, 0, 0, 1, 1, 0, 220, 1, 1.1],
        [148, 1, 257.5, 131.1, 0, 0, 1, 1, 0, 220, 1, 1.1],
        [149, 1, 0, 0, 0, 0, 1, 1, 0, 150, 1, 1.1],
        [150, 1, 0, 0, 0, 0, 1, 1, 0, 220, 1, 1.1],
        [151, 1, 100.8, 13.2, 0, 0, 1, 1.04391, 0, 220, 1, 1.18781],
        [152, 2, 113.9, 11.9, 0, 0, 1, 1, 0, 220, 1, 1.1],
        [153, 2, 104.4, 0.7, 0, 0, 1, 1, 0, 220, 1, 1.1],
        [154, 1, 370.5, -17, 0, 0, 1, 1.02827, 0, 220, 1, 1.15654],
        [155, 1, 9.910988, 3.2, 0, 0, 1, 1, 0, 110, 1, 1.1],
        [156, 2, 0, 0, 0, 0, 1, 1, 0, 150, 1, 1.1],
        [157, 1, 94.9, 36.2, 0, 0, 1, 1, 0, 220, 1, 1.1],
        [158, 1, 81.0899, 48, 0, 0, 1, 1, 0, 150, 1, 1.1],
        [159, 2, 210.4, 159.2, 0, 0, 1, 1.01645, 0, 380, 1, 1.13289],
        [160, 1, 0, 0, 0, 0, 1, 1, 0, 110, 1, 1.1],
        [161, 1, 54.96094, 16.9, 0, 0, 1, 1, 0, 110, 1, 1.1],
        [162, 1, 19.32142, 26, 0, 0, 1, 1, 0, 220, 1, 1.1],
        [163, 1, 0, 0, 0, 0, 1, 1, 0, 150, 1, 1.1],
        [164, 1, 0, 0, 0, 0, 1, 1.01214, 0, 220, 1, 1.12428],
        [165, 1, 19.92209, 6.6, 0, 0, 1, 1, 0, 110, 1, 1.1],
        [166, 1, 57.16338, 2, 0, 0, 1, 1, 0, 110, 1, 1.1],
        [167, 1, 69.57714, 16, 0, 0, 1, 1.03299, 0, 220, 1, 1.16597],
        [168, 1, 36.84085, 13.9, 0, 0, 1, 1.03077, 0, 220, 1, 1.16155],
        [169, 2, 4.805328, 1.3, 0, 0, 1, 1, 0, 110, 1, 1.1],
        [170, 2, 9.210212, 6, 0, 0, 1, 1, 0, 110, 1, 1.1],
        [171, 1, 0, 0, 0, 0, 1, 1.00512, 0, 220, 1, 1.11024],
        [172, 2, 0, 0, 0, 0, 1, 1, 0, 380, 1, 1.1],
        [173, 1, 119.9, 3.7, 0, 0, 1, 1, 0, 220, 1, 1.1],
        [174, 2, 0, 0, 0, 0, 1, 1.00389, 0, 150, 1, 1.10778],
        [175, 2, 75.78402, 24.6, 0, 0, 1, 1.02662, 0, 220, 1, 1.15324],
        [176, 1, 0, 0, 0, 0, 1, 1.03341, 0, 220, 1, 1.16682],
        [177, 2, 0, 0, 0.288019, 0, 1, 1.0098, 0, 380, 1, 1.11959],
        [178, 1, 39.74406, 11.8, 0, 0, 1, 1.01333, 0, 220, 1, 1.12666],
        [179, 1, 86.79623, 28.4, 0, 0, 1, 1.01202, 0, 150, 1, 1.12403],
        [180, 1, 22.42486, 2.1, 0, 0, 1, 1, 0, 150, 1, 1.1],
        [181, 2, 0, 0, 0, 0, 1, 1.00385, 0, 220, 1, 1.1077],
        [182, 1, 110.9, 32.7, 0, 0, 1, 1, 0, 220, 1, 1.1],
        [183, 1, 0, 0, 0.191685, 0, 1, 1.00682, 0, 220, 1, 1.11363],
        [184, 1, 46.15117, 18.2, 0, 0, 1, 1.01722, 0, 150, 1, 1.13444],
        [185, 1, 34.03774, 12.3, 0, 0, 1, 1.01882, 0, 110, 1, 1.13765],
        [186, 2, 322.4, 84.4, 0, 0, 1, 1.00468, 0, 220, 1, 1.10936],
        [187, 1, 33.43707, 10, 0, 0, 1, 1, 0, 110, 1, 1.1],
        [188, 2, 0, 0, 0, 0, 1, 1, 0, 110, 1, 1.1],
        [189, 1, 0, 0, 0, 0, 1, 1, 0, 110, 1, 1.1],
        [190, 1, 75.28346, 19.2, 0, 0, 1, 1.00758, 0, 110, 1, 1.11516],
        [191, 2, 219.6, 77.5, 0, 0, 1, 1.00634, 0, 220, 1, 1.11269],
        [192, 1, 37.3414, 10.9, 0, 0, 1, 1, 0, 110, 1, 1.2],
        [193, 2, 340, 93.8, 0, 0, 1, 1.01309, 0, 380, 1, 1.12617],
        [194, 1, 0, 0, 0, 0, 1, 1, 0, 110, 1, 1.1],
        [195, 1, 155.6, 54.7, 0, 0, 1, 1.01826, 0, 220, 1, 1.13653],
        [196, 1, 105.2, 0.1, 0, 0, 1, 1.01766, 0, 220, 1, 1.13531],
        [197, 2, 80.9898, 21, 0, 0, 1, 1.00321, 0, 220, 1, 1.10643],
        [198, 2, 0, 0, 0, 0, 1, 1.01008, 0, 380, 1, 1.12015],
        [199, 2, 0, 0, 0, 0, 1, 1.03238, 0, 380, 1, 1.16475],
        [200, 2, 0, 0, 0, 0, 1, 1.01916, 0, 380, 1, 1.13832],
...
    ])
    ppc['gen'] = array([
        [5, 1044.4, 140.4, 524.5259, -211.567, 1.060105, 1580.692228, 1, 1200],
        [10, 31.25, 13.32, 9999, -9999, 1.045776, 50.95553, 1, 9999],
        [14, 467.5, 104, 212.965, -93.4811, 1.040474, 718.392346, 1, 500],
        [20, 319.6, 86.8, 179.4347, -66.2055, 1.012955, 496.765941, 1, 400],
        [27, 8, 0.8, 0.8, 0.8, 1.020864, 12.059851, 1, 8],
        [28, 5.3, 0.1, 0.1, 0.1, 1.025773, 7.951415, 1, 5.3],
        [34, 34.3, 1.2, 17.7615, -7.14375, 1.023133, 51.481477, 1, 40],
        [35, 8.01, 3.26, 9999, -9999, 0.952528, 12.971982, 1, 9999],
        [42, 309.2, 59.2, 218.5186, -75.9716, 1.051136, 472.224396, 1, 480],
        [43, 7.3, 1.8, 1.8, 1.8, 1.026, 11.277965, 1, 7.3],
        [51, 4.87, 2.96, 9999, -9999, 1.030763, 8.548487, 1, 9999],
        [70, 180.5, 28.3, 139.9369, -43.7779, 1.022545, 274.057594, 1, 300],
        [71, 0.02, 0.52, 9999, -9999, 1.048726, 0.780577, 1, 9999],
        [79, 1.95, 1.11, 9999, -9999, 1.031659, 3.365687, 1, 9999],
        [85, 19.73, 8.33, 9999, -9999, 1.068345, 32.124586, 1, 9999],
        [96, 570, 10.2, 253.8527, -113.787, 1.103763, 855.136884, 1, 600],
        [109, 24.9, 10.2, 18.84201, -6.06272, 1.066727, 40.362266, 1, 40],
        [110, 861.3, 112.3, 440.32, -172.589, 1.066, 1302.885338, 1, 1000],
        [111, 4.79, 1.72, 9999, -9999, 1.0287, 7.634175, 1, 9999],
        [121, 5.05, 3.39, 9999, -9999, 1.029075, 9.123478, 1, 9999],
        [125, 27.7, 5.9, 18.59004, -6.32799, 1.002727, 42.482055, 1, 40],
        [126, 158.7, 14.4, 78.14512, -32.3995, 1.080818, 239.027953, 1, 180],
        [131, 144, 4.8, 70.12466, -29.5005, 1.095727, 216.119967, 1, 160],
        [134, 79.6, 9.6, 77.09313, -22.5412, 1.0975, 120.265207, 1, 160],
        [144, 4.64, 2.37, 9999, -9999, 1.073994, 7.815345, 1, 9999],
        [147, 292.2, 63.3, 127.6701, -56.5257, 1.030091, 448.466713, 1, 300],
        [152, 2.2, 0.94, 9999, -9999, 1.0096, 3.588607, 1, 9999],
        [153, 14.02, 5.75, 9999, -9999, 1.0196, 22.72997, 1, 9999],
        [156, 0.69, 5.46, 9999, -9999, 1.008891, 8.255139, 1, 9999],
        [159, 31.2, 3.1, 52.63864, -51.7172, 1.089842, 47.030442, 1, 158.0808],
        [169, 19.85, 6.42, 9999, -9999, 0.998323, 31.29357, 1, 9999],
        [170, 99.9, 20.7, 54.23686, -20.6272, 0.993364, 153.033085, 1, 120],
        [172, 135.8, 13, 91.61313, -30.9805, 1.087684, 204.631229, 1, 200],
        [174, 268.6, 61.3, 130.1877, -53.534, 1.075867, 413.259256, 1, 300],
        [175, 2.64, 3.05, 9999, -9999, 1.092354, 6.050804, 1, 9999],
        [177, 292.2, -21.9, 123.8859, -59.5392, 1.105553, 439.529308, 1, 300],
        [181, 5.2, 0.3, 0.3, 0.3, 1.057864, 7.81297, 1, 5.2],
        [186, 0.42, 0, 9999, -9999, 1.03615, 0.63, 1, 9999],
        [188, 25.4, 5.3, 18.70203, -6.16587, 0.972727, 38.920592, 1, 40],
        [191, 123.91, 52.96, 9999, -9999, 1.040354, 202.129938, 1, 9999],
        [193, 164.8, 64.9, 191.9957, -52.889, 1.056395, 265.678118, 1, 400],
        [197, 11.16, 5.88, 9999, -9999, 1.049023, 18.921416, 1, 9999],
        [198, 1171, 381.4, 937.433, -288.159, 1.079342, 1847.319859, 1, 2000],
        [199, 668.7, -45.9, 402.9197, -146.951, 1.0985, 1005.410177, 1, 900],
        [200, 296, 62, 183.9209, -65.2995, 1.076684, 453.635316, 1, 400],
        [201, 28.9, 2.9, 12.50527, -5.62181, 0.944667, 43.567706, 1, 29.60204],
        [209, 2.13, 0.78, 9999, -9999, 1.011746, 3.402488, 1, 9999],
        [210, 0.13, 1, 9999, -9999, 1.04248, 1.512622, 1, 9999],
        [217, 39, 15.8, 38.52133, -11.2425, 1.036909, 63.11846, 1, 80],
        [224, 439, 127.6, 378.0823, -112.594, 1.057909, 685.752295, 1, 800],
        [226, 52.2, 9.6, 37.47434, -12.3498, 1.0115, 79.613127, 1, 80],
        [232, 423.2, 37.6, 220.6567, -85.886, 1.102342, 637.300557, 1, 500],
        [235, 0.68, 14.79, 9999, -9999, 1.033422, 22.208436, 1, 9999],
        [238, 45.4, 9.6, 38.09511, -11.7155, 1.028136, 69.605819, 1, 80],
        [243, 0.13, 1, 9999, -9999, 1.079235, 1.512622, 1, 9999],
        [253, 49.2, 10, 37.70184, -12.0883, 0.979909, 75.308964, 1, 80],
        [257, 1295.6, 65.4, 924.6445, -300.349, 1.104, 1945.874397, 1, 2000],
        [263, 52.7, -0.5, 26.01981, -10.8118, 1.090773, 79.053558, 1, 60],
        [272, 1204, 144.4, 721.2503, -258.712, 1.078658, 1818.942429, 1, 1600],
        [274, 14.85, 4.95, 9999, -9999, 0.97336, 23.479912, 1, 9999],
        [281, 95.1, 21.4, 42.62279, -18.7213, 1.014045, 146.217073, 1, 100],
        [282, -2.1, 286.38, 99999, -99999, 1.092632, 429.581549, 1, -2.1],
        [284, 0.16, 2.91, 9999, -9999, 1.075726, 4.371593, 1, 9999],
        [292, 94, 22.2, 95.31674, -27.2949, 1.087711, 144.87888, 1, 200],
        [295, 213.6, 26.5, 188.9056, -56.1422, 0.948091, 322.85635, 1, 400],
        [303, -1.81, 1.5, 9999, -9999, 1.030147, 3.526149, 1, 9999],
        [304, 83.7, 12.6, 55.54403, -19.1586, 1.076818, 126.964611, 1, 120],
        [308, 12.84, 3.2, 9999, -9999, 1.060331, 19.849121, 1, 9999],
        [313, 160.4, 20.8, 110.5715, -36.9041, 1.102211, 242.614509, 1, 240],
        [316, 0.15, 1.93, 9999, -9999, 1.029313, 2.90373, 1, 9999],
        [317, 1250.4, 256.2, 926.3492, -297.678, 1.092132, 1914.565708, 1, 2000],
        [320, 4.86, 2.15, 9999, -9999, 0.975854, 7.971495, 1, 9999],
        [325, 238.3, 26.9, 186.3895, -58.5035, 1.095395, 359.720204, 1, 400],
        [326, 0.03, 0.68, 9999, -9999, 0.97953, 1.020992, 1, 9999],
        [334, 318.8, 103.6, 282.9458, -84.3021, 1.092053, 502.816468, 1, 600],
        [338, 0.18, 1, 9999, -9999, 1.064448, 1.524106, 1, 9999],
        [339, 106.95, 44.5, 9999, -9999, 0.999614, 173.757714, 1, 9999],
        [343, 42.2, 17.4, 38.39833, -11.4385, 1.090682, 68.469701, 1, 80],
        [348, 0.19, 4.38, 9999, -9999, 1.086247, 6.576179, 1, 9999],
        [350, 69, 6, 56.72846, -17.8435, 1.0236, 103.890567, 1, 120],
        [355, 2404.4, 187.9, 1224.256, -490.165, 1.082, 3617.596299, 1, 2800],
        [361, 30.67, 11.83, 9999, -9999, 0.997732, 49.308671, 1, 9999],
        [362, 6.57, 4.31, 9999, -9999, 1.021904, 11.786316, 1, 9999],
        [365, 9.81, 3.56, 9999, -9999, 1.012912, 15.653972, 1, 9999],
        [367, 30.4, -0.7, 22.21964, -17.3452, 0.949182, 45.612087, 1, 61.22614],
        [369, 3.31, 1.62, 9999, -9999, 1.034669, 5.527759, 1, 9999],
        [370, 35.9, 4.4, 17.65988, -7.27293, 1.024636, 54.252949, 1, 40],
        [371, 231, 24.5, 124.1169, -49.8432, 1.014864, 348.443414, 1, 280],
        [381, 636.3, 103.6, 304.3814, -125.481, 1.070579, 967.018078, 1, 700],
        [388, 142.98, 57.87, 9999, -9999, 1.059877, 231.37089, 1, 9999],
        [390, 436, 105.5, 217.1751, -89.2166, 1.047842, 672.873734, 1, 500],
        [394, 74, 7, 45.10484, -16.1804, 1.021182, 111.495516, 1, 100],
        [395, 308.6, -28.2, 175.156, -69.2068, 1.098682, 464.828678, 1, 400],
        [396, 83.1, 9.9, 55.72715, -19.0053, 1.085545, 125.53145, 1, 120],
        [398, 4.5, 0.6, 0.6, 0.6, 1.0075, 6.809736, 1, 4.5],
        [402, 5.37, 2.33, 9999, -9999, 1.045887, 8.78055, 1, 9999],
        [403, 39.9, 3.6, 16.84024, -8.04071, 1.001545, 60.093115, 1, 40],
        [408, 47.6, 11.8, 37.86198, -11.9408, 1.012818, 73.561199, 1, 80],
        [409, 260.1, 75.6, 257.2252, -74.3989, 1.077842, 406.296176, 1, 540],
        [410, 6.88, 3.44, 9999, -9999, 1.057826, 11.538111, 1, 9999],
        [411, 42.5, 6.1, 44.79799, -39.8056, 0.996818, 64.4033, 1, 129.18183],
        [427, 16.34, 5.12, 9999, -9999, 1.045996, 25.685064, 1, 9999],
        [438, 229.5, -11.1, 132.4063, -50.8474, 0.989364, 344.652412, 1, 300],
        [441, 3.8, 2.48, 9999, -9999, 1.011891, 6.806497, 1, 9999],
        [442, 8.5, 1.1, 1.1, 1.1, 1.031, 12.856321, 1, 8.5],
        [444, 105.4, 38, 94.56444, -28.1008, 1.099, 168.061328, 1, 200],
        [451, 135.89, 60.88, 9999, -9999, 1.032798, 223.356329, 1, 9999],
        [459, 19.83, 5.95, 9999, -9999, 0.960088, 31.055123, 1, 9999],
        [462, 101.4, 5.8, 94.3813, -28.0441, 1.078553, 152.348613, 1, 200],
        [466, 129.6, 25.6, 72.50375, -27.2399, 1.075364, 198.156302, 1, 160],
        [467, 539.4, 133.2, 261.7932, -106.67, 1.075818, 833.404374, 1, 600],
        [469, 192.6, 28, 85.62814, -37.2118, 1.031395, 291.936997, 1, 200],
        [503, 0.18, 3.57, 9999, -9999, 1.04818, 5.361802, 1, 9999],
        [509, 6.9, 3, 18.46584, -19.3502, 1.040727, 11.285943, 1, 56.816328],
        [522, 0.13, 1, 9999, -9999, 1.078858, 1.512622, 1, 9999],
        [523, 55.7, 4.4, 25.87924, -11.0132, 0.997091, 83.810277, 1, 60],
        [527, 33.6, 7.3, 17.88329, -7.03048, 1.057636, 51.575794, 1, 40],
        [531, 249, 66.8, 185.5624, -59.3858, 1.0595, 386.706982, 1, 400],
        [534, 400.8, 78.8, 380.3121, -110.078, 1.094921, 612.709295, 1, 800],
        [557, 38.2, -3.3, 17.0903, -7.78858, 1.096591, 57.513411, 1, 40],
        [558, 379.2, 55.2, 217.8958, -81.1598, 1.079273, 574.79499, 1, 480],
        [559, 9.73, 6.29, 9999, -9999, 0.973935, 17.379104, 1, 9999],
        [560, 671.2, 61.6, 351.176, -139.111, 1.082368, 1011.031157, 1, 800],
        [569, 152.4, 5.7, 78.788, -31.6917, 0.992455, 228.759836, 1, 180],
        [576, 109.8, 21.6, 52.99446, -21.8745, 1.056636, 167.856635, 1, 120],
        [577, 20.59, 8.08, 9999, -9999, 1.020676, 33.177969, 1, 9999],
        [578, 133.7, 56, 135.5178, -38.9046, 1.050773, 217.431144, 1, 280],
        [580, 1.23, -0.1, 9999, -9999, 1.081123, 1.851088, 1, 9999],
        [581, 38.7, 4, 90.12852, -93.0288, 1.085368, 58.359254, 1, 276.09134],
        [584, 0.59, 0.83, 9999, -9999, 1.05456, 1.527498, 1, 9999],
        [586, 47.2, 5.6, 37.9476, -11.8693, 1.054773, 71.296564, 1, 80],
        [589, 17.53, 3.75, 9999, -9999, 0.950047, 26.889917, 1, 9999],
        [593, 0.15, 1.93, 9999, -9999, 1.029293, 2.90373, 1, 9999],
        [603, 5.61, 2.79, 9999, -9999, 1.07087, 9.398215, 1, 9999],
        [608, 67, 11.9, 71.32494, -62.9243, 1.063974, 102.072878, 1, 205.80612],
        [618, 37.4, 12.2, 38.76588, -11.0648, 1.084227, 59.009321, 1, 80],
        [622, 20.7, 5.2, 34.74669, -34.262, 1.053045, 32.014723, 1, 104.27135],
        [627, 274.8, -4.8, 182.1713, -62.7871, 1.09875, 412.262877, 1, 400],
        [631, 0.61, 1.21, 9999, -9999, 1.073545, 2.032597, 1, 9999],
        [632, 634.8, 61.4, 357.3998, -132.748, 1.096316, 956.643742, 1, 800],
        [633, 274.8, 8.2, 129.9381, -53.9068, 1.016727, 412.383474, 1, 300],
        [643, 16, 1.4, 22.22661, -20.8341, 1.085395, 24.0917, 1, 65.29948],
        [645, 451.2, 139.2, 377.0113, -113.626, 1.055184, 708.276556, 1, 800],
        [647, 99.3, 9.3, 53.98251, -20.7936, 0.991455, 149.601822, 1, 120],
        [648, 453.4, 122.2, 376.3604, -114.083, 1.092237, 704.368441, 1, 800],
        [651, 17.19, 5.2, 9999, -9999, 1.039331, 26.938935, 1, 9999],
        [652, 0.54, 0.99, 9999, -9999, 1.043796, 1.691545, 1, 9999],
        [659, 419.2, 174.6, 379.6141, -111.091, 1.097447, 681.161545, 1, 800],
        [665, 96.77, 44.54, 9999, -9999, 1.04125, 159.792209, 1, 9999],
        [666, 14.71, 4.51, 9999, -9999, 1.033004, 23.078766, 1, 9999],
        [668, 102, 22, 107.8562, -95.1534, 1.016545, 156.51837, 1, 311.391],
        [669, 467, 46, 212.9697, -93.4506, 1.079789, 703.890084, 1, 500],
        [677, 49.2, 10.4, 37.77862, -12.0423, 0.989364, 75.430763, 1, 80],
        [679, 215.4, 61.2, 105.6865, -43.844, 0.995136, 335.888151, 1, 240],
        [681, 208.5, 30, 136.9403, -47.2439, 1.023545, 315.970825, 1, 300],
        [686, 116.7, 11.4, 51.29568, -23.4138, 1.066816, 175.883235, 1, 120],
        [692, 37.3, 6.7, 27.88098, -8.97053, 1.081455, 56.845448, 1, 60],
        [693, 361.7, 56.6, 174.172, -71.125, 1.000409, 549.15254, 1, 400],
        [694, 170.7, 3.9, 76.76137, -33.8382, 1.062591, 256.116819, 1, 180],
        [698, 0.43, 0, 9999, -9999, 1.065508, 0.645, 1, 9999],
        [702, 14.87, 4.17, 9999, -9999, 0.988124, 23.165449, 1, 9999],
        [703, 55.14, 27.14, 9999, -9999, 1.081084, 92.185944, 1, 9999],
        [704, 30.8, 3.3, 18.16351, -6.7311, 1.063773, 46.464422, 1, 40],
        [705, 16.5, 2, 12.36838, -9.36122, 1.078, 24.931155, 1, 33.58376],
        [706, 37.8, 8.7, 17.34023, -7.58033, 1.068842, 58.182407, 1, 45],
        [707, 50.8, 3.2, 37.43079, -12.3168, 1.024136, 76.351031, 1, 80],
        [711, 26, 14.72, 9999, -9999, 1.076152, 44.816586, 1, 9999],
        [716, 0.15, 1, 9999, -9999, 1.077179, 1.516781, 1, 9999],
        [717, 621.8, 175.4, 567.628, -167.477, 1.103342, 969.097983, 1, 1200],
        [720, 58.4, 9.8, 36.75392, -13.0447, 1.073864, 88.824828, 1, 80],
        [721, 31.6, 14.2, 39.0043, -10.7449, 1.014545, 51.965854, 1, 80],
        [728, 111.2, 22.4, 74.03435, -25.5438, 1.038955, 170.150522, 1, 160],
        [732, 1820, 154, 864.4675, -360.968, 1.085842, 2739.755646, 1, 2000],
        [736, -17.83, 9.5, 9999, -9999, 1.059217, 30.304414, 1, 9999],
        [739, -3.15, 1.79, 9999, -9999, 1.03953, 5.434598, 1, 9999],
        [746, 1274.2, 277.8, 926.6834, -298.308, 1.084658, 1956.196969, 1, 2000],
        [752, 85.2, 10.2, 55.58738, -19.18, 0.999909, 128.712587, 1, 120],
        [753, 507, 76.4, 264.7092, -102.832, 1.013227, 769.086088, 1, 600],
        [757, 44, 4.2, 27.19461, -9.66223, 1.066136, 66.3, 1, 60],
        [764, 97.5, 15.9, 54.35089, -20.4699, 1.091289, 148.181932, 1, 120],
        [767, 66.8, 3.9, 49.63444, -38.1223, 1.045867, 100.370626, 1, 136.7347],
        [768, 8.7, 1.1, 1.1, 1.1, 1.087553, 13.153897, 1, 8.7],
        [770, 94, 32.5, 96.63999, -27.8097, 1.065727, 149.189686, 1, 200],
        [776, 855.6, 159.3, 440.6747, -172.154, 1.081211, 1305.454964, 1, 1000],
        [778, 55.8, 15.9, 57.97606, -16.677, 1.054545, 87.031675, 1, 120],
        [787, 11.81, 4.86, 9999, -9999, 1.057058, 19.156339, 1, 9999],
        [790, 343.5, 24, 228.1617, -78.185, 1.081263, 516.506111, 1, 500],
        [801, 2.85, 7.24, 9999, -9999, 1.032767, 11.671128, 1, 9999],
        [803, 199.4, 58.9, 138.6001, -45.2708, 1.061636, 311.875829, 1, 300],
        [806, 1702.8, 411.6, 1097.413, -373.912, 1.068474, 2627.759578, 1, 2400],
        [807, 56.7, 22.2, 58.05788, -16.6605, 1.044273, 91.336699, 1, 120],
        [809, 289.6, 55.2, 141.9267, -57.7392, 1.016409, 442.220759, 1, 320],
        [815, 4.94, 3.67, 9999, -9999, 0.996099, 9.231096, 1, 9999],
        [825, 1249.4, 419, 772.113, -269.937, 1.047395, 1976.679807, 1, 1700],
        [828, 231, 20, 134.4455, -49.7625, 1.079591, 347.796277, 1, 300],
        [829, 32, 6.4, 18.22456, -6.72812, 1.014182, 48.950587, 1, 40],
        [838, 27.4, 9.3, 28.69322, -8.15604, 1.067318, 43.402909, 1, 60],
        [841, 680.7, 26.7, 406.6568, -144.751, 1.099553, 1021.835165, 1, 900],
        [864, 10.1, 3.95, 9999, -9999, 1.066541, 16.267395, 1, 9999],
        [877, 24.29, 8.74, 9999, -9999, 0.992788, 38.721846, 1, 9999],
...
    ])
    ppc['gencost'] = array([
        [2, 0, 0, 3, 0, 18.130646],
        [2, 0, 0, 3, 0, 29.899131],
        [2, 0, 0, 3, 0, 23.714975],
        [2, 0, 0, 3, 0, 29.564137],
        [2, 0, 0, 3, 0, 23.311448],
        [2, 0, 0, 3, 0, 118.442461],
        [2, 0, 0, 3, 0, 14.497507],
        [2, 0, 0, 3, 0, 6.747879],
        [2, 0, 0, 3, 0, 42.608525],
        [2, 0, 0, 3, 0, 46.425028],
        [2, 0, 0, 3, 0, 32.169166],
        [2, 0, 0, 3, 0, 34.096008],
        [2, 0, 0, 3, 0, 6.502744],
        [2, 0, 0, 3, 0, 27.300737],
        [2, 0, 0, 3, 0, 29.332069],
        [2, 0, 0, 3, 0, 29.315452],
        [2, 0, 0, 3, 0, 36.089004],
        [2, 0, 0, 3, 0, 24.964515],
        [2, 0, 0, 3, 0, 37.504296],
        [2, 0, 0, 3, 0, 7.75285],
        [2, 0, 0, 3, 0, 26.258554],
        [2, 0, 0, 3, 0, 31.404643],
        [2, 0, 0, 3, 0, 23.164513],
        [2, 0, 0, 3, 0, 10.909421],
        [2, 0, 0, 3, 0, 30.619126],
        [2, 0, 0, 3, 0, 39.907284],
        [2, 0, 0, 3, 0, 31.308174],
        [2, 0, 0, 3, 0, 9.218636],
        [2, 0, 0, 3, 0, 23.831525],
        [2, 0, 0, 3, 0, 20.866181],
        [2, 0, 0, 3, 0, 17.289072],
        [2, 0, 0, 3, 0, 30.294626],
        [2, 0, 0, 3, 0, 41.114366],
        [2, 0, 0, 3, 0, 38.188996],
        [2, 0, 0, 3, 0, 7.997956],
        [2, 0, 0, 3, 0, 20.199133],
        [2, 0, 0, 3, 0, 47.960916],
        [2, 0, 0, 3, 0, 53.879456],
        [2, 0, 0, 3, 0, 32.07519],
        [2, 0, 0, 3, 0, 25.774221],
        [2, 0, 0, 3, 0, 24.822136],
        [2, 0, 0, 3, 0, 11.496713],
        [2, 0, 0, 3, 0, 11.459789],
        [2, 0, 0, 3, 0, 26.778074],
        [2, 0, 0, 3, 0, 14.497525],
        [2, 0, 0, 3, 0, 26.821946],
        [2, 0, 0, 3, 0, 27.652106],
        [2, 0, 0, 3, 0, 19.781025],
        [2, 0, 0, 3, 0, 29.35502],
        [2, 0, 0, 3, 0, 13.329335],
        [2, 0, 0, 3, 0, 34.857966],
        [2, 0, 0, 3, 0, 42.432193],
        [2, 0, 0, 3, 0, 32.372311],
        [2, 0, 0, 3, 0, 55.929965],
        [2, 0, 0, 3, 0, 25.193859],
        [2, 0, 0, 3, 0, 39.048246],
        [2, 0, 0, 3, 0, 28.244934],
        [2, 0, 0, 3, 0, 107.279795],
        [2, 0, 0, 3, 0, 7.333091],
        [2, 0, 0, 3, 0, 10.543214],
        [2, 0, 0, 3, 0, 25.069247],
        [2, 0, 0, 3, 0, 0],
        [2, 0, 0, 3, 0, 7.613053],
        [2, 0, 0, 3, 0, 28.945646],
        [2, 0, 0, 3, 0, 7.103443],
        [2, 0, 0, 3, 0, 24.752858],
        [2, 0, 0, 3, 0, 32.43678],
        [2, 0, 0, 3, 0, 116.591305],
        [2, 0, 0, 3, 0, 30.648792],
        [2, 0, 0, 3, 0, 22.252807],
        [2, 0, 0, 3, 0, 30.916947],
        [2, 0, 0, 3, 0, 29.42888],
        [2, 0, 0, 3, 0, 38.662181],
        [2, 0, 0, 3, 0, 23.283271],
        [2, 0, 0, 3, 0, 24.362241],
        [2, 0, 0, 3, 0, 18.181341],
        [2, 0, 0, 3, 0, 100.673745],
        [2, 0, 0, 3, 0, 46.732707],
        [2, 0, 0, 3, 0, 27.314392],
        [2, 0, 0, 3, 0, 27.603616],
        [2, 0, 0, 3, 0, 25.709033],
        [2, 0, 0, 3, 0, 16.818857],
        [2, 0, 0, 3, 0, 18.491283],
        [2, 0, 0, 3, 0, 22.704611],
        [2, 0, 0, 3, 0, 50.404721],
        [2, 0, 0, 3, 0, 9.091379],
        [2, 0, 0, 3, 0, 24.181733],
        [2, 0, 0, 3, 0, 44.314382],
        [2, 0, 0, 3, 0, 23.576426],
        [2, 0, 0, 3, 0, 8.465543],
        [2, 0, 0, 3, 0, 43.788936],
        [2, 0, 0, 3, 0, 44.584229],
        [2, 0, 0, 3, 0, 31.322202],
        [2, 0, 0, 3, 0, 32.263223],
        [2, 0, 0, 3, 0, 117.568688],
        [2, 0, 0, 3, 0, 28.525744],
        [2, 0, 0, 3, 0, 9.00059],
        [2, 0, 0, 3, 0, 113.12771],
        [2, 0, 0, 3, 0, 35.996032],
        [2, 0, 0, 3, 0, 27.238071],
        [2, 0, 0, 3, 0, 19.224556],
        [2, 0, 0, 3, 0, 22.042403],
        [2, 0, 0, 3, 0, 26.226613],
        [2, 0, 0, 3, 0, 21.446039],
        [2, 0, 0, 3, 0, 35.086407],
        [2, 0, 0, 3, 0, 23.41902],
        [2, 0, 0, 3, 0, 20.446315],
        [2, 0, 0, 3, 0, 22.689615],
        [2, 0, 0, 3, 0, 23.917116],
        [2, 0, 0, 3, 0, 40.657884],
        [2, 0, 0, 3, 0, 21.173151],
        [2, 0, 0, 3, 0, 39.108451],
        [2, 0, 0, 3, 0, 36.530806],
        [2, 0, 0, 3, 0, 46.532813],
        [2, 0, 0, 3, 0, 27.816016],
        [2, 0, 0, 3, 0, 98.850429],
        [2, 0, 0, 3, 0, 43.127373],
        [2, 0, 0, 3, 0, 41.726959],
        [2, 0, 0, 3, 0, 24.224455],
        [2, 0, 0, 3, 0, 23.622934],
        [2, 0, 0, 3, 0, 21.653828],
        [2, 0, 0, 3, 0, 6.539002],
        [2, 0, 0, 3, 0, 38.612077],
        [2, 0, 0, 3, 0, 41.344935],
        [2, 0, 0, 3, 0, 48.583814],
        [2, 0, 0, 3, 0, 28.445641],
        [2, 0, 0, 3, 0, 38.110435],
        [2, 0, 0, 3, 0, 7.480638],
        [2, 0, 0, 3, 0, 45.310011],
        [2, 0, 0, 3, 0, 13.516269],
        [2, 0, 0, 3, 0, 17.303315],
        [2, 0, 0, 3, 0, 14.417375],
        [2, 0, 0, 3, 0, 30.051325],
        [2, 0, 0, 3, 0, 21.768645],
        [2, 0, 0, 3, 0, 21.600583],
        [2, 0, 0, 3, 0, 113.70815],
        [2, 0, 0, 3, 0, 40.165534],
        [2, 0, 0, 3, 0, 40.483065],
        [2, 0, 0, 3, 0, 15.409557],
        [2, 0, 0, 3, 0, 7.911011],
        [2, 0, 0, 3, 0, 22.856992],
        [2, 0, 0, 3, 0, 117.207234],
        [2, 0, 0, 3, 0, 11.716451],
        [2, 0, 0, 3, 0, 41.514516],
        [2, 0, 0, 3, 0, 21.515337],
        [2, 0, 0, 3, 0, 30.270179],
        [2, 0, 0, 3, 0, 24.50891],
        [2, 0, 0, 3, 0, 2.88146],
        [2, 0, 0, 3, 0, 9.436772],
        [2, 0, 0, 3, 0, 23.79247],
        [2, 0, 0, 3, 0, 13.635119],
        [2, 0, 0, 3, 0, 27.42224],
        [2, 0, 0, 3, 0, 31.021825],
        [2, 0, 0, 3, 0, 41.272833],
        [2, 0, 0, 3, 0, 30.882109],
        [2, 0, 0, 3, 0, 28.783414],
        [2, 0, 0, 3, 0, 34.079474],
        [2, 0, 0, 3, 0, 50.861316],
        [2, 0, 0, 3, 0, 30.575138],
        [2, 0, 0, 3, 0, 19.2695],
        [2, 0, 0, 3, 0, 18.529946],
        [2, 0, 0, 3, 0, 18.812025],
        [2, 0, 0, 3, 0, 37.63218],
        [2, 0, 0, 3, 0, 38.051403],
        [2, 0, 0, 3, 0, 27.679125],
        [2, 0, 0, 3, 0, 40.014491],
        [2, 0, 0, 3, 0, 14.026515],
        [2, 0, 0, 3, 0, 30.439785],
        [2, 0, 0, 3, 0, 21.748961],
        [2, 0, 0, 3, 0, 17.097731],
        [2, 0, 0, 3, 0, 30.789745],
        [2, 0, 0, 3, 0, 19.819745],
        [2, 0, 0, 3, 0, 37.582986],
        [2, 0, 0, 3, 0, 31.921308],
        [2, 0, 0, 3, 0, 12.304414],
        [2, 0, 0, 3, 0, 8.072454],
        [2, 0, 0, 3, 0, 45.713051],
        [2, 0, 0, 3, 0, 30.558019],
        [2, 0, 0, 3, 0, 115.436487],
        [2, 0, 0, 3, 0, 33.990617],
        [2, 0, 0, 3, 0, 27.137478],
        [2, 0, 0, 3, 0, 40.499529],
        [2, 0, 0, 3, 0, 52.499699],
        [2, 0, 0, 3, 0, 6.345038],
        [2, 0, 0, 3, 0, 41.194918],
        [2, 0, 0, 3, 0, 22.999022],
        [2, 0, 0, 3, 0, 17.952791],
        [2, 0, 0, 3, 0, 25.033657],
        [2, 0, 0, 3, 0, 25.364788],
        [2, 0, 0, 3, 0, 24.403688],
        [2, 0, 0, 3, 0, 26.847029],
        [2, 0, 0, 3, 0, 40.289916],
        [2, 0, 0, 3, 0, 28.765848],
        [2, 0, 0, 3, 0, 4.825237],
        [2, 0, 0, 3, 0, 30.837778],
        [2, 0, 0, 3, 0, 51.283237],
        [2, 0, 0, 3, 0, 112.489572],
        [2, 0, 0, 3, 0, 17.187205],
        [2, 0, 0, 3, 0, 33.403189],
        [2, 0, 0, 3, 0, 39.489589],
...
    ])
    ppc['branch'] = array([
        [4679, 2816, 0.0006, 0.00616, 0.19426, 837.866207, 837.866207, 837.866207, 0, 0, 1, -30],
        [4679, 7951, 0.0005, 0.0074, 0.16192, 939.310725, 939.310725, 939.310725, 0, 0, 1, -30],
        [1976, 2843, 0.00107, 0.00626, 0.0176, 489.131391, 489.131391, 489.131391, 0, 0, 1, -30],
        [1976, 2940, 0.000841, 0.0055, 0.00899, 488.494654, 488.494654, 488.494654, 0, 0, 1, -30],
        [3197, 645, 0.00143, 0.01563, 0.4664, 1660.159233, 1660.159233, 1660.159233, 0, 0, 1, -30],
        [3197, 4123, 0.00146, 0.01692, 0.38774, 1742.65082, 1742.65082, 1742.65082, 0, 0, 1, -30],
        [384, 4925, 7e-05, 0.00057, 0.01238, 1713.388168, 1713.388168, 1713.388168, 0, 0, 1, -30],
        [384, 4276, 6e-05, 0.00056, 0.01238, 1530.306379, 1530.306379, 1530.306379, 0, 0, 1, -30],
        [5407, 6736, 0.003349, 0.01656, 0.02751, 231.433719, 231.433719, 231.433719, 0, 0, 1, -30],
        [5407, 2899, 0.003409, 0.016211, 0.02803, 286.353101, 286.353101, 286.353101, 0, 0, 1, -30],
        [4077, 6736, 0.003479, 0.01586, 0.02855, 235.506394, 235.506394, 235.506394, 0, 0, 1, -30],
        [4077, 2899, 0.003099, 0.017969, 0.02543, 282.911066, 282.911066, 282.911066, 0, 0, 1, -30],
        [480, 8352, 0.00127, 0.01842, 0.46004, 830.576213, 830.576213, 830.576213, 0, 0, 1, -30],
        [480, 756, 0.00126, 0.01847, 0.48802, 1552.792417, 1552.792417, 1552.792417, 0, 0, 1, -30],
        [1510, 105, 0.0013, 0.01808, 0.46926, 1220.321038, 1220.321038, 1220.321038, 0, 0, 1, -30],
        [1510, 3134, 0.00131, 0.01765, 0.50568, 1757.022165, 1757.022165, 1757.022165, 0, 0, 1, -30],
        [4625, 1654, 0.00065, 0.01311, 4.8838, 2817.518821, 2817.518821, 2817.518821, 0, 0, 1, -30],
        [4625, 5805, 0.00067, 0.00974, 5.004478, 2634.653227, 2634.653227, 2634.653227, 0, 0, 1, -30],
        [4733, 7105, 0.00236, 0.01418, 0.02922, 566.739703, 566.739703, 566.739703, 0, 0, 1, -30],
        [4733, 7048, 0.002169, 0.015909, 0.02764, 524.512373, 524.512373, 524.512373, 0, 0, 1, -30],
        [319, 1163, 0.00027, 0.00254, 0.08831, 1378.411759, 1378.411759, 1378.411759, 0, 0, 1, -30],
        [319, 6912, 0.00027, 0.00259, 0.08492, 1131.566217, 1131.566217, 1131.566217, 0, 0, 1, -30],
        [2367, 1163, 0.00033, 0.00302, 0.10365, 1462.494165, 1462.494165, 1462.494165, 0, 0, 1, -30],
        [2367, 818, 0.00029, 0.00312, 0.08619, 1630.685305, 1630.685305, 1630.685305, 0, 0, 1, -30],
        [1685, 5933, 0.000289, 0.00137, 0.22216, 544.409342, 544.409342, 544.409342, 0, 0, 1, -30],
        [1685, 6917, 0.000219, 0.00263, 0.28226, 281.672649, 281.672649, 281.672649, 0, 0, 1, -30],
        [1946, 5933, 0.000289, 0.001341, 0.22651, 465.512314, 465.512314, 465.512314, 0, 0, 1, -30],
        [1946, 7971, 0.000229, 0.00257, 0.2878, 289.387031, 289.387031, 289.387031, 0, 0, 1, -30],
        [5998, 5933, 0.000841, 0.00689, 0.00957, 522.453554, 522.453554, 522.453554, 0, 0, 1, -30],
        [5998, 1505, 0.000979, 0.00586, 0.01124, 503.907031, 503.907031, 503.907031, 0, 0, 1, -30],
        [5239, 5933, 0.00014, 0.0012, 0.0041, 268.472275, 268.472275, 268.472275, 0, 0, 1, -30],
        [5239, 7112, 0.000211, 0.001539, 0.00302, 280.884255, 280.884255, 280.884255, 0, 0, 1, -30],
        [4742, 5933, 0.000401, 0.004901, 0.01141, 292.571856, 292.571856, 292.571856, 0, 0, 1, -30],
        [4742, 7112, 0.000219, 0.00151, 0.00617, 544.34342, 544.34342, 544.34342, 0, 0, 1, -30],
        [7323, 5933, 0.000729, 0.004539, 0.00827, 509.486382, 509.486382, 509.486382, 0, 0, 1, -30],
        [7323, 2501, 0.00062, 0.00482, 0.00701, 512.761136, 512.761136, 512.761136, 0, 0, 1, -30],
        [2700, 5509, 0.00052, 0.00407, 0.12738, 1486.455841, 1486.455841, 1486.455841, 0, 0, 1, -30],
        [2700, 3130, 0.00034, 0.00502, 0.10364, 1862.363105, 1862.363105, 1862.363105, 0, 0, 1, -30],
        [6860, 5509, 0.00065, 0.00698, 0.21868, 1729.127868, 1729.127868, 1729.127868, 0, 0, 1, -30],
        [6860, 8006, 0.00059, 0.00806, 0.19224, 1708.378765, 1708.378765, 1708.378765, 0, 0, 1, -30],
        [6120, 8045, 0.00063, 0.00464, 0.01791, 502.488759, 502.488759, 502.488759, 0, 0, 1, -30],
        [6120, 4620, 0.000599, 0.005099, 0.00753, 540.018489, 540.018489, 540.018489, 0, 0, 1, -30],
        [4509, 4351, 0.00064, 0.00307, 0.00977, 328.235579, 328.235579, 328.235579, 0, 0, 1, -30],
        [4509, 6956, 0.000659, 0.003, 0.00994, 279.764726, 279.764726, 279.764726, 0, 0, 1, -30],
        [7816, 6146, 0.00053, 0.00528, 0.13049, 1106.540923, 1106.540923, 1106.540923, 0, 0, 1, -30],
        [7816, 7429, 0.00056, 0.0053, 0.13554, 1298.465351, 1298.465351, 1298.465351, 0, 0, 1, -30],
        [2826, 4351, 0.0018, 0.007919, 0.0274, 283.888462, 283.888462, 283.888462, 0, 0, 1, -30],
        [2826, 6489, 0.001651, 0.00862, 0.02553, 282.802085, 282.802085, 282.802085, 0, 0, 1, -30],
        [4932, 6146, 0.00045, 0.00545, 0.10855, 1383.103261, 1383.103261, 1383.103261, 0, 0, 1, -30],
        [4932, 818, 0.00052, 0.00476, 0.12312, 1549.818105, 1549.818105, 1549.818105, 0, 0, 1, -30],
        [2075, 6238, 0.01286, 0.037421, 0.00426, 57.157677, 57.157677, 57.157677, 0, 0, 1, -30],
        [2075, 5131, 0.032397, 0.123, 0.01071, 57.157677, 57.157677, 57.157677, 0, 0, 1, -30],
        [428, 6238, 0.032851, 0.069727, 0.00686, 57.157677, 57.157677, 57.157677, 0, 0, 1, -30],
        [428, 7299, 0.059942, 0.112802, 0.01253, 57.157677, 57.157677, 57.157677, 0, 0, 1, -30],
        [7184, 6775, 0.00011, 0.00109, 0.0275, 1117.523303, 1117.523303, 1117.523303, 0, 0, 1, -30],
        [7184, 8079, 0.00011, 0.00107, 0.02724, 1195.989466, 1195.989466, 1195.989466, 0, 0, 1, -30],
        [5649, 6968, 0.000461, 0.00395, 0.00707, 647.787002, 647.787002, 647.787002, 0, 0, 1, -30],
        [5649, 1374, 0.000599, 0.003789, 0.00905, 609.489453, 609.489453, 609.489453, 0, 0, 1, -30],
        [6457, 5956, 0.00173, 0.01542, 0.41037, 991.605046, 991.605046, 991.605046, 0, 0, 1, -30],
        [6457, 3958, 0.00166, 0.02083, 0.38623, 1139.939574, 1139.939574, 1139.939574, 0, 0, 1, -30],
        [3151, 8031, 0.006314, 0.018488, 0.0014, 57.157677, 57.157677, 57.157677, 0, 0, 1, -30],
        [3151, 1823, 0.015727, 0.037669, 0.00402, 57.157677, 57.157677, 57.157677, 0, 0, 1, -30],
        [6856, 6402, 0.00374, 0.02095, 0.02838, 813.890259, 813.890259, 813.890259, 0, 0, 1, -30],
        [6856, 3936, 0.00511, 0.019461, 0.03356, 805.730048, 805.730048, 805.730048, 0, 0, 1, -30],
        [975, 2598, 0.011281, 0.050771, 0.08633, 470.645455, 470.645455, 470.645455, 0, 0, 1, -30],
        [975, 2345, 0.0115, 0.049719, 0.088, 449.934942, 449.934942, 449.934942, 0, 0, 1, -30],
        [3594, 2598, 0.011719, 0.048659, 0.08965, 452.083309, 452.083309, 452.083309, 0, 0, 1, -30],
        [3594, 2345, 0.01193, 0.047599, 0.09132, 454.348277, 454.348277, 454.348277, 0, 0, 1, -30],
        [117, 2691, 0.00064, 0.00715, 0.21543, 1506.892967, 1506.892967, 1506.892967, 0, 0, 1, -30],
        [117, 4000, 0.00089, 0.00712, 0.21232, 1309.97954, 1309.97954, 1309.97954, 0, 0, 1, -30],
        [4587, 628, 0.00048, 0.00555, 0.12144, 1001.310558, 1001.310558, 1001.310558, 0, 0, 1, -30],
        [4587, 7131, 0.00047, 0.00566, 0.11886, 1106.93978, 1106.93978, 1106.93978, 0, 0, 1, -30],
        [6245, 628, 0.00046, 0.00524, 0.11627, 1061.994032, 1061.994032, 1061.994032, 0, 0, 1, -30],
        [6245, 7131, 0.00052, 0.00514, 0.13178, 1066.333408, 1066.333408, 1066.333408, 0, 0, 1, -30],
        [1324, 4099, 0.00438, 0.010686, 0.00092, 72.65579, 72.65579, 72.65579, 0, 0, 1, -30],
        [1324, 6038, 0.031347, 0.062653, 0.00639, 72.65579, 72.65579, 72.65579, 0, 0, 1, -30],
        [5891, 4499, 0.00029, 0.00298, 0.08127, 1628.17106, 1628.17106, 1628.17106, 0, 0, 1, -30],
        [5891, 5519, 0.0003, 0.00291, 0.08283, 1543.318584, 1543.318584, 1543.318584, 0, 0, 1, -30],
        [1258, 8182, 0.00155, 0.01529, 0.48969, 1213.99791, 1213.99791, 1213.99791, 0, 0, 1, -30],
        [1258, 2862, 0.00148, 0.0152, 0.35671, 1311.675668, 1311.675668, 1311.675668, 0, 0, 1, -30],
        [7887, 7378, 0.000169, 0.00096, 0.00546, 322.117283, 322.117283, 322.117283, 0, 0, 1, -30],
        [7887, 5621, 0.000182, 0.000942, 0.00558, 322.117283, 322.117283, 322.117283, 0, 0, 1, -30],
        [5142, 381, 0.00016, 0.00184, 0.05863, 2676.565133, 2676.565133, 2676.565133, 0, 0, 1, -30],
        [5142, 6559, 0.00022, 0.00287, 0.072, 2676.565133, 2676.565133, 2676.565133, 0, 0, 1, -30],
        [3506, 5894, 0.00015, 0.00187, 0.05744, 2521.340125, 2521.340125, 2521.340125, 0, 0, 1, -30],
        [3506, 4345, 0.00022, 0.00266, 0.07043, 2521.340125, 2521.340125, 2521.340125, 0, 0, 1, -30],
        [610, 8066, 0.00138, 0.0174, 0.4384, 1321.989996, 1321.989996, 1321.989996, 0, 0, 1, -30],
        [610, 2834, 0.00272, 0.0288, 0.87792, 1111.997888, 1111.997888, 1111.997888, 0, 0, 1, -30],
        [7365, 4709, 0.00065, 0.01024, 0.22418, 1854.816421, 1854.816421, 1854.816421, 0, 0, 1, -30],
        [7365, 5452, 0.00073, 0.01004, 0.25405, 1897.315059, 1897.315059, 1897.315059, 0, 0, 1, -30],
        [8112, 4709, 0.00075, 0.00983, 0.25905, 1927.105571, 1927.105571, 1927.105571, 0, 0, 1, -30],
        [8112, 5452, 0.00076, 0.00963, 0.26401, 1937.405419, 1937.405419, 1937.405419, 0, 0, 1, -30],
        [6482, 6695, 0.00042, 0.02666, 0, 1205.779883, 1205.779883, 1205.779883, 0, 0, 1, -30],
        [3646, 8036, 0.00029, 0.0026, 0.11024, 2185.862183, 2185.862183, 2185.862183, 0, 0, 1, -30],
        [3646, 5247, 0.00022, 0.00303, 0.09849, 1209.378149, 1209.378149, 1209.378149, 0, 0, 1, -30],
        [6344, 3424, 0.001, 0.006159, 0.01409, 267.888504, 267.888504, 267.888504, 0, 0, 1, -30],
        [6344, 8264, 0.00113, 0.00657, 0.01345, 543.343542, 543.343542, 543.343542, 0, 0, 1, -30],
        [1102, 7486, 0.0013, 0.01277, 0.3118, 1318.151494, 1318.151494, 1318.151494, 0, 0, 1, -30],
        [1102, 6646, 0.00163, 0.01808, 0.39172, 1409.439648, 1409.439648, 1409.439648, 0, 0, 1, -30],
        [7841, 95, 0.00047, 0.00406, 0.10714, 1325.914719, 1325.914719, 1325.914719, 0, 0, 1, -30],
        [7841, 5337, 0.00235, 0.02343, 0.53841, 1334.222916, 1334.222916, 1334.222916, 0, 0, 1, -30],
        [86, 5816, 0.00036, 0.00445, 0.18766, 1579.188698, 1579.188698, 1579.188698, 0, 0, 1, -30],
        [86, 1498, 0.00017, 0.0025, 0, 1911.928614, 1911.928614, 1911.928614, 0, 0, 1, -30],
        [3987, 5816, 0.00036, 0.00436, 0.19134, 1593.219106, 1593.219106, 1593.219106, 0, 0, 1, -30],
        [3987, 3164, 0.00017, 0.00255, 0, 1817.450265, 1817.450265, 1817.450265, 0, 0, 1, -30],
        [1725, 2919, 0.00096, 0.00995, 0.22139, 1380.469227, 1380.469227, 1380.469227, 0, 0, 1, -30],
        [1725, 6159, 0.00152, 0.01949, 0.37613, 1402.562332, 1402.562332, 1402.562332, 0, 0, 1, -30],
        [4828, 2919, 0.00094, 0.01014, 0.21687, 1268.953249, 1268.953249, 1268.953249, 0, 0, 1, -30],
        [4828, 6159, 0.00149, 0.01986, 0.36829, 1430.785061, 1430.785061, 1430.785061, 0, 0, 1, -30],
        [2614, 2919, 0.00107, 0.01243, 0.24707, 1178.384486, 1178.384486, 1178.384486, 0, 0, 1, -30],
        [2614, 2342, 0.00102, 0.01034, 0.24764, 1234.992513, 1234.992513, 1234.992513, 0, 0, 1, -30],
        [3381, 4411, 0.0047, 0.02061, 0.03819, 447.966813, 447.966813, 447.966813, 0, 0, 1, -30],
        [3381, 3355, 0.00739, 0.040531, 0.05525, 404.795239, 404.795239, 404.795239, 0, 0, 1, -30],
        [5504, 7837, 0.00049, 0.00611, 0.19795, 1947.280741, 1947.280741, 1947.280741, 0, 0, 1, -30],
        [5504, 6646, 0.00035, 0.00431, 0.0827, 1567.792982, 1567.792982, 1567.792982, 0, 0, 1, -30],
        [4882, 937, 0.00261, 0.01344, 0.0252, 437.660522, 437.660522, 437.660522, 0, 0, 1, -30],
        [4882, 3204, 0.003521, 0.019591, 0.03391, 429.711413, 429.711413, 429.711413, 0, 0, 1, -30],
        [6232, 3117, 0.0025, 0.01419, 0.03183, 372.206218, 372.206218, 372.206218, 0, 0, 1, -30],
        [6232, 4589, 0.00287, 0.0237, 0.04153, 385.660754, 385.660754, 385.660754, 0, 0, 1, -30],
        [6070, 6116, 0.00088, 0.00956, 0.22766, 1569.533866, 1569.533866, 1569.533866, 0, 0, 1, -30],
        [6070, 261, 0.00095, 0.00877, 0.19307, 1400.706925, 1400.706925, 1400.706925, 0, 0, 1, -30],
        [1875, 682, 0.00332, 0.020651, 0.02957, 470.772726, 470.772726, 470.772726, 0, 0, 1, -30],
        [1875, 2772, 0.003969, 0.018781, 0.03027, 471.867867, 471.867867, 471.867867, 0, 0, 1, -30],
        [2622, 2483, 0.002849, 0.014909, 0.02173, 445.358899, 445.358899, 445.358899, 0, 0, 1, -30],
        [2622, 1435, 0.00439, 0.02451, 0.0346, 451.864585, 451.864585, 451.864585, 0, 0, 1, -30],
        [1389, 7878, 0.0002, 0.0018, 0.07654, 2095.832469, 2095.832469, 2095.832469, 0, 0, 1, -30],
        [1389, 7605, 0.00025, 0.00261, 0.06775, 2102.649232, 2102.649232, 2102.649232, 0, 0, 1, -30],
        [6681, 7878, 0.0002, 0.00176, 0.07802, 2134.423496, 2134.423496, 2134.423496, 0, 0, 1, -30],
        [6681, 123, 0.00025, 0.00255, 0.06908, 1937.405419, 1937.405419, 1937.405419, 0, 0, 1, -30],
        [928, 5603, 0.012488, 0.047413, 0.00424, 67.329076, 67.329076, 67.329076, 0, 0, 1, -30],
        [928, 6509, 0.010479, 0.027711, 0.00207, 85.815012, 85.815012, 85.815012, 0, 0, 1, -30],
        [2363, 6761, 0.00044, 0.00428, 0.12975, 1833.265656, 1833.265656, 1833.265656, 0, 0, 1, -30],
        [2363, 1217, 0.00036, 0.00475, 0.10092, 1994.391899, 1994.391899, 1994.391899, 0, 0, 1, -30],
        [4306, 4764, 0.00058, 0.00534, 0.13981, 1877.338659, 1877.338659, 1877.338659, 0, 0, 1, -30],
        [4306, 2861, 0.00054, 0.00589, 0.13209, 1858.837238, 1858.837238, 1858.837238, 0, 0, 1, -30],
        [2670, 1301, 0.00206, 0.02057, 0.51797, 1174.669063, 1174.669063, 1174.669063, 0, 0, 1, -30],
        [2670, 1406, 0.00077, 0.00872, 0.20069, 961.484786, 961.484786, 961.484786, 0, 0, 1, -30],
        [3435, 8333, 0.00161, 0.01963, 0.40525, 1358.870415, 1358.870415, 1358.870415, 0, 0, 1, -30],
        [3435, 1406, 0.00075, 0.00888, 0.19651, 1403.075054, 1403.075054, 1403.075054, 0, 0, 1, -30],
        [1771, 6583, 0.00016, 0.00152, 0.04776, 1657.359338, 1657.359338, 1657.359338, 0, 0, 1, -30],
        [1771, 4971, 0.00019, 0.00163, 0.04733, 1717.031849, 1717.031849, 1717.031849, 0, 0, 1, -30],
        [4966, 6583, 0.00015, 0.0016, 0.04863, 1564.938458, 1564.938458, 1564.938458, 0, 0, 1, -30],
        [4966, 4971, 0.00015, 0.00183, 0.03978, 1665.435198, 1665.435198, 1665.435198, 0, 0, 1, -30],
        [3318, 2990, 0.00121, 0.01426, 0.55448, 1444.733197, 1444.733197, 1444.733197, 0, 0, 1, -30],
        [3318, 5013, 0.00116, 0.01456, 0.60295, 1466.368867, 1466.368867, 1466.368867, 0, 0, 1, -30],
        [407, 128, 0.00068, 0.00727, 0.22697, 1800.689729, 1800.689729, 1800.689729, 0, 0, 1, -30],
        [407, 1459, 0.0007, 0.00734, 0.22711, 1898.674199, 1898.674199, 1898.674199, 0, 0, 1, -30],
        [7167, 128, 0.00076, 0.00712, 0.25723, 1607.734593, 1607.734593, 1607.734593, 0, 0, 1, -30],
        [7167, 1459, 0.0008, 0.00719, 0.25739, 1927.514958, 1927.514958, 1927.514958, 0, 0, 1, -30],
        [1919, 1442, 0.0002, 0.0022, 0.062275, 1244.209656, 1244.209656, 1244.209656, 0, 0, 1, -30],
        [1919, 6722, 0.0002, 0.0022, 0.062275, 1261.682342, 1261.682342, 1261.682342, 0, 0, 1, -30],
        [245, 1869, 0.000205, 0.00215, 0.06346, 1418.856877, 1418.856877, 1418.856877, 0, 0, 1, -30],
        [245, 6722, 0.000205, 0.00215, 0.06346, 1453.656134, 1453.656134, 1453.656134, 0, 0, 1, -30],
        [5385, 7644, 0.00053, 0.00589, 0.16224, 1317.582827, 1317.582827, 1317.582827, 0, 0, 1, -30],
        [5385, 740, 0.00046, 0.00675, 0.14064, 1137.865651, 1137.865651, 1137.865651, 0, 0, 1, -30],
        [7742, 7644, 0.00054, 0.00577, 0.1653, 1330.820129, 1330.820129, 1330.820129, 0, 0, 1, -30],
        [7742, 740, 0.00045, 0.00625, 0.13758, 1096.470122, 1096.470122, 1096.470122, 0, 0, 1, -30],
        [1508, 1408, 0.00275, 0.02752, 0.56046, 1411.808435, 1411.808435, 1411.808435, 0, 0, 1, -30],
        [1508, 6962, 0.00184, 0.01515, 0.34348, 1346.975799, 1346.975799, 1346.975799, 0, 0, 1, -30],
        [2112, 3779, 0.00438, 0.02432, 0.03353, 333.346238, 333.346238, 333.346238, 0, 0, 1, -30],
        [2112, 543, 0.0043, 0.01949, 0.03241, 339.998629, 339.998629, 339.998629, 0, 0, 1, -30],
        [7591, 6347, 0.00033, 0.00269, 0.0779, 1242.212082, 1242.212082, 1242.212082, 0, 0, 1, -30],
        [7591, 4460, 0.00243, 0.01904, 0.5944, 1144.881184, 1144.881184, 1144.881184, 0, 0, 1, -30],
        [853, 6347, 0.00034, 0.00263, 0.07939, 1144.715981, 1144.715981, 1144.715981, 0, 0, 1, -30],
        [853, 4460, 0.00248, 0.01864, 0.60583, 1111.114611, 1111.114611, 1111.114611, 0, 0, 1, -30],
        [6125, 5616, 0.00122, 0.01249, 0.30518, 1013.272967, 1013.272967, 1013.272967, 0, 0, 1, -30],
        [6125, 3694, 0.00106, 0.01031, 0.38362, 1081.291191, 1081.291191, 1081.291191, 0, 0, 1, -30],
        [3009, 5616, 0.00119, 0.01273, 0.29895, 999.643389, 999.643389, 999.643389, 0, 0, 1, -30],
        [3009, 3694, 0.00108, 0.01009, 0.39072, 1111.156735, 1111.156735, 1111.156735, 0, 0, 1, -30],
        [1257, 4008, 0.001039, 0.013711, 0.03649, 215.929128, 215.929128, 215.929128, 0, 0, 1, -30],
        [1257, 4677, 0.00114, 0.011409, 0.04302, 265.692506, 265.692506, 265.692506, 0, 0, 1, -30],
        [7122, 5332, 0.001021, 0.013969, 0.03573, 215.929128, 215.929128, 215.929128, 0, 0, 1, -30],
        [7122, 4677, 0.001169, 0.011159, 0.04381, 215.929128, 215.929128, 215.929128, 0, 0, 1, -30],
        [7257, 7434, 0, 0.000271, 0, 116.419016, 116.419016, 116.419016, 0, 0, 1, -30],
        [2111, 7434, 0, 0.000271, 0, 107.991376, 107.991376, 107.991376, 0, 0, 1, -30],
        [763, 136, 0.009372, 0.035702, 0.00318, 57.157677, 57.157677, 57.157677, 0, 0, 1, -30],
        [763, 3273, 0.029157, 0.103686, 0.0096, 62.300153, 62.300153, 62.300153, 0, 0, 1, -30],
        [479, 5017, 0.00065, 0.00673, 0.27895, 1520.735794, 1520.735794, 1520.735794, 0, 0, 1, -30],
        [479, 3793, 0.00066, 0.00658, 0.28412, 1707.555383, 1707.555383, 1707.555383, 0, 0, 1, -30],
        [3208, 2254, 0.000969, 0.006021, 0.02439, 569.472221, 569.472221, 569.472221, 0, 0, 1, -30],
        [3208, 3796, 0.00099, 0.005901, 0.02496, 392.38364, 392.38364, 392.38364, 0, 0, 1, -30],
        [1057, 7795, 0.00088, 0.006599, 0.0224, 301.459494, 301.459494, 301.459494, 0, 0, 1, -30],
        [1057, 4838, 0.00086, 0.006729, 0.02201, 497.991593, 497.991593, 497.991593, 0, 0, 1, -30],
        [7881, 2979, 9e-05, 0.00077, 0.02844, 1730.488983, 1730.488983, 1730.488983, 0, 0, 1, -30],
        [7881, 3848, 9e-05, 0.00078, 0.02787, 1594.328797, 1594.328797, 1594.328797, 0, 0, 1, -30],
        [4477, 2979, 8e-05, 0.00082, 0.02558, 1504.127297, 1504.127297, 1504.127297, 0, 0, 1, -30],
        [4477, 6912, 8e-05, 0.00076, 0.02572, 1261.729073, 1261.729073, 1261.729073, 0, 0, 1, -30],
        [6130, 5017, 9e-05, 0.00074, 0.02909, 1625.280995, 1625.280995, 1625.280995, 0, 0, 1, -30],
        [6130, 3848, 9e-05, 0.00073, 0.02972, 1271.969685, 1271.969685, 1271.969685, 0, 0, 1, -30],
        [3722, 2254, 0.00062, 0.003781, 0.00889, 259.689045, 259.689045, 259.689045, 0, 0, 1, -30],
        [3722, 709, 0.000599, 0.0035, 0.00876, 564.635157, 564.635157, 564.635157, 0, 0, 1, -30],
        [6233, 7795, 0.00064, 0.00274, 0.00858, 380.223535, 380.223535, 380.223535, 0, 0, 1, -30],
        [6233, 1226, 0.000651, 0.00268, 0.0087, 613.291582, 613.291582, 613.291582, 0, 0, 1, -30],
        [6180, 1246, 0.00055, 0.00685, 0.14191, 1806.74827, 1806.74827, 1806.74827, 0, 0, 1, -30],
        [6180, 337, 0.00061, 0.00639, 0.15911, 1857.406357, 1857.406357, 1857.406357, 0, 0, 1, -30],
        [5463, 5017, 0.00042, 0.00523, 0.10137, 1525.086359, 1525.086359, 1525.086359, 0, 0, 1, -30],
        [5463, 7554, 0.00045, 0.00605, 0.10902, 1499.506879, 1499.506879, 1499.506879, 0, 0, 1, -30],
        [5167, 2979, 0.0003, 0.00228, 0.06581, 1478.004819, 1478.004819, 1478.004819, 0, 0, 1, -30],
        [5167, 8079, 0.00026, 0.00264, 0.05674, 1225.587789, 1225.587789, 1225.587789, 0, 0, 1, -30],
        [3047, 8376, 0.00536, 0.03568, 0.04968, 567.016727, 567.016727, 567.016727, 0, 0, 1, -30],
...
    ])

    return ppc
